examples/data/enwl/lv-network-models/Network_8/Feeder_2/Loads.txt
New Load.LOAD1 Phases=1 Bus1=270.2 kV=0.23 kW=1 PF=0.95 Daily=Shape_1
New Load.LOAD2 Phases=1 Bus1=494.3 kV=0.23 kW=1 PF=0.95 Daily=Shape_2
New Load.LOAD3 Phases=3 Bus1=632 kV=0.412 kW=3 PF=0.95 Daily=Shape_3
New Load.LOAD4 Phases=1 Bus1=639.3 kV=0.23 kW=1 PF=0.95 Daily=Shape_4
New Load.LOAD5 Phases=1 Bus1=654.1 kV=0.23 kW=1 PF=0.95 Daily=Shape_5
New Load.LOAD6 Phases=1 Bus1=692.3 kV=0.23 kW=1 PF=0.95 Daily=Shape_6
New Load.LOAD7 Phases=1 Bus1=880.3 kV=0.23 kW=1 PF=0.95 Daily=Shape_7
New Load.LOAD8 Phases=1 Bus1=1025.2 kV=0.23 kW=1 PF=0.95 Daily=Shape_8
New Load.LOAD9 Phases=1 Bus1=1049.1 kV=0.23 kW=1 PF=0.95 Daily=Shape_9
New Load.LOAD10 Phases=1 Bus1=1061.3 kV=0.23 kW=1 PF=0.95 Daily=Shape_10
New Load.LOAD11 Phases=1 Bus1=1075.3 kV=0.23 kW=1 PF=0.95 Daily=Shape_11
New Load.LOAD12 Phases=1 Bus1=1154.3 kV=0.23 kW=1 PF=0.95 Daily=Shape_12
New Load.LOAD13 Phases=1 Bus1=1227.2 kV=0.23 kW=1 PF=0.95 Daily=Shape_13
New Load.LOAD14 Phases=1 Bus1=1235.3 kV=0.23 kW=1 PF=0.95 Daily=Shape_14
New Load.LOAD15 Phases=1 Bus1=1345.1 kV=0.23 kW=1 PF=0.95 Daily=Shape_15
New Load.LOAD16 Phases=1 Bus1=1349.1 kV=0.23 kW=1 PF=0.95 Daily=Shape_16
New Load.LOAD17 Phases=1 Bus1=1383.1 kV=0.23 kW=1 PF=0.95 Daily=Shape_17
New Load.LOAD18 Phases=1 Bus1=1384.2 kV=0.23 kW=1 PF=0.95 Daily=Shape_18
New Load.LOAD19 Phases=1 Bus1=1390.3 kV=0.23 kW=1 PF=0.95 Daily=Shape_19
New Load.LOAD20 Phases=1 Bus1=1426.1 kV=0.23 kW=1 PF=0.95 Daily=Shape_20
New Load.LOAD21 Phases=1 Bus1=1467.1 kV=0.23 kW=1 PF=0.95 Daily=Shape_21
New Load.LOAD22 Phases=1 Bus1=1503.3 kV=0.23 kW=1 PF=0.95 Daily=Shape_22
New Load.LOAD23 Phases=1 Bus1=1554.3 kV=0.23 kW=1 PF=0.95 Daily=Shape_23
New Load.LOAD24 Phases=1 Bus1=1606.3 kV=0.23 kW=1 PF=0.95 Daily=Shape_24
New Load.LOAD25 Phases=1 Bus1=1617.1 kV=0.23 kW=1 PF=0.95 Daily=Shape_25
New Load.LOAD26 Phases=1 Bus1=1658.3 kV=0.23 kW=1 PF=0.95 Daily=Shape_26
New Load.LOAD27 Phases=1 Bus1=1778.1 kV=0.23 kW=1 PF=0.95 Daily=Shape_27
New Load.LOAD28 Phases=1 Bus1=1783.1 kV=0.23 kW=1 PF=0.95 Daily=Shape_28
New Load.LOAD29 Phases=1 Bus1=1794.2 kV=0.23 kW=1 PF=0.95 Daily=Shape_29
New Load.LOAD30 Phases=1 Bus1=1856.3 kV=0.23 kW=1 PF=0.95 Daily=Shape_30
New Load.LOAD31 Phases=1 Bus1=1871.2 kV=0.23 kW=1 PF=0.95 Daily=Shape_31
New Load.LOAD32 Phases=1 Bus1=1894.2 kV=0.23 kW=1 PF=0.95 Daily=Shape_32
New Load.LOAD33 Phases=1 Bus1=1895.2 kV=0.23 kW=1 PF=0.95 Daily=Shape_33
New Load.LOAD34 Phases=1 Bus1=1902.3 kV=0.23 kW=1 PF=0.95 Daily=Shape_34
New Load.LOAD35 Phases=1 Bus1=1941.1 kV=0.23 kW=1 PF=0.95 Daily=Shape_35
New Load.LOAD36 Phases=1 Bus1=1994.3 kV=0.23 kW=1 PF=0.95 Daily=Shape_36
New Load.LOAD37 Phases=1 Bus1=2132.1 kV=0.23 kW=1 PF=0.95 Daily=Shape_37
New Load.LOAD38 Phases=1 Bus1=2179.2 kV=0.23 kW=1 PF=0.95 Daily=Shape_38
New Load.LOAD39 Phases=1 Bus1=2203.2 kV=0.23 kW=1 PF=0.95 Daily=Shape_39
New Load.LOAD40 Phases=1 Bus1=2231.1 kV=0.23 kW=1 PF=0.95 Daily=Shape_40
New Load.LOAD41 Phases=1 Bus1=2249.3 kV=0.23 kW=1 PF=0.95 Daily=Shape_41
New Load.LOAD42 Phases=1 Bus1=2250.3 kV=0.23 kW=1 PF=0.95 Daily=Shape_42
New Load.LOAD43 Phases=1 Bus1=2259.2 kV=0.23 kW=1 PF=0.95 Daily=Shape_43
New Load.LOAD44 Phases=1 Bus1=2290.2 kV=0.23 kW=1 PF=0.95 Daily=Shape_44
New Load.LOAD45 Phases=1 Bus1=2309.2 kV=0.23 kW=1 PF=0.95 Daily=Shape_45
New Load.LOAD46 Phases=1 Bus1=2351.3 kV=0.23 kW=1 PF=0.95 Daily=Shape_46
New Load.LOAD47 Phases=1 Bus1=2396.3 kV=0.23 kW=1 PF=0.95 Daily=Shape_47
New Load.LOAD48 Phases=1 Bus1=2408.3 kV=0.23 kW=1 PF=0.95 Daily=Shape_48
New Load.LOAD49 Phases=1 Bus1=2438.3 kV=0.23 kW=1 PF=0.95 Daily=Shape_49
New Load.LOAD50 Phases=1 Bus1=2479.3 kV=0.23 kW=1 PF=0.95 Daily=Shape_50
New Load.LOAD51 Phases=1 Bus1=2498.1 kV=0.23 kW=1 PF=0.95 Daily=Shape_51
New Load.LOAD52 Phases=1 Bus1=2516.3 kV=0.23 kW=1 PF=0.95 Daily=Shape_52
New Load.LOAD53 Phases=1 Bus1=2535.3 kV=0.23 kW=1 PF=0.95 Daily=Shape_53
New Load.LOAD54 Phases=1 Bus1=2542.1 kV=0.23 kW=1 PF=0.95 Daily=Shape_54
New Load.LOAD55 Phases=1 Bus1=2545.3 kV=0.23 kW=1 PF=0.95 Daily=Shape_55
New Load.LOAD56 Phases=1 Bus1=2546.3 kV=0.23 kW=1 PF=0.95 Daily=Shape_56
New Load.LOAD57 Phases=1 Bus1=2572.2 kV=0.23 kW=1 PF=0.95 Daily=Shape_57
New Load.LOAD58 Phases=1 Bus1=2596.1 kV=0.23 kW=1 PF=0.95 Daily=Shape_58
New Load.LOAD59 Phases=1 Bus1=2604.1 kV=0.23 kW=1 PF=0.95 Daily=Shape_59
New Load.LOAD60 Phases=1 Bus1=2606.2 kV=0.23 kW=1 PF=0.95 Daily=Shape_60
New Load.LOAD61 Phases=1 Bus1=2622.3 kV=0.23 kW=1 PF=0.95 Daily=Shape_61
New Load.LOAD62 Phases=1 Bus1=2626.3 kV=0.23 kW=1 PF=0.95 Daily=Shape_62
New Load.LOAD63 Phases=1 Bus1=2636.1 kV=0.23 kW=1 PF=0.95 Daily=Shape_63
New Load.LOAD64 Phases=1 Bus1=2684.3 kV=0.23 kW=1 PF=0.95 Daily=Shape_64
New Load.LOAD65 Phases=1 Bus1=2687.2 kV=0.23 kW=1 PF=0.95 Daily=Shape_65
New Load.LOAD66 Phases=1 Bus1=2710.3 kV=0.23 kW=1 PF=0.95 Daily=Shape_66
New Load.LOAD67 Phases=1 Bus1=2712.2 kV=0.23 kW=1 PF=0.95 Daily=Shape_67
New Load.LOAD68 Phases=1 Bus1=2800.3 kV=0.23 kW=1 PF=0.95 Daily=Shape_68
New Load.LOAD69 Phases=1 Bus1=2816.1 kV=0.23 kW=1 PF=0.95 Daily=Shape_69
New Load.LOAD70 Phases=1 Bus1=2828.3 kV=0.23 kW=1 PF=0.95 Daily=Shape_70
New Load.LOAD71 Phases=1 Bus1=2832.2 kV=0.23 kW=1 PF=0.95 Daily=Shape_71
New Load.LOAD72 Phases=1 Bus1=2859.3 kV=0.23 kW=1 PF=0.95 Daily=Shape_72
New Load.LOAD73 Phases=1 Bus1=2889.3 kV=0.23 kW=1 PF=0.95 Daily=Shape_73
New Load.LOAD74 Phases=1 Bus1=2890.3 kV=0.23 kW=1 PF=0.95 Daily=Shape_74
New Load.LOAD75 Phases=1 Bus1=2909.3 kV=0.23 kW=1 PF=0.95 Daily=Shape_75
New Load.LOAD76 Phases=1 Bus1=2941.1 kV=0.23 kW=1 PF=0.95 Daily=Shape_76
New Load.LOAD77 Phases=1 Bus1=2978.3 kV=0.23 kW=1 PF=0.95 Daily=Shape_77
New Load.LOAD78 Phases=1 Bus1=3039.3 kV=0.23 kW=1 PF=0.95 Daily=Shape_78
New Load.LOAD79 Phases=1 Bus1=3044.2 kV=0.23 kW=1 PF=0.95 Daily=Shape_79
New Load.LOAD80 Phases=1 Bus1=3074.2 kV=0.23 kW=1 PF=0.95 Daily=Shape_80
New Load.LOAD81 Phases=1 Bus1=3079.2 kV=0.23 kW=1 PF=0.95 Daily=Shape_81
New Load.LOAD82 Phases=1 Bus1=3089.3 kV=0.23 kW=1 PF=0.95 Daily=Shape_82
New Load.LOAD83 Phases=1 Bus1=3144.3 kV=0.23 kW=1 PF=0.95 Daily=Shape_83
New Load.LOAD84 Phases=1 Bus1=3178.1 kV=0.23 kW=1 PF=0.95 Daily=Shape_84
New Load.LOAD85 Phases=1 Bus1=3240.2 kV=0.23 kW=1 PF=0.95 Daily=Shape_85
New Load.LOAD86 Phases=1 Bus1=3244.1 kV=0.23 kW=1 PF=0.95 Daily=Shape_86
New Load.LOAD87 Phases=1 Bus1=3245.2 kV=0.23 kW=1 PF=0.95 Daily=Shape_87
New Load.LOAD88 Phases=1 Bus1=3259.3 kV=0.23 kW=1 PF=0.95 Daily=Shape_88
New Load.LOAD89 Phases=1 Bus1=3277.3 kV=0.23 kW=1 PF=0.95 Daily=Shape_89
New Load.LOAD90 Phases=1 Bus1=3285.1 kV=0.23 kW=1 PF=0.95 Daily=Shape_90
New Load.LOAD91 Phases=1 Bus1=3287.3 kV=0.23 kW=1 PF=0.95 Daily=Shape_91
New Load.LOAD92 Phases=1 Bus1=3288.3 kV=0.23 kW=1 PF=0.95 Daily=Shape_92
New Load.LOAD93 Phases=1 Bus1=3321.1 kV=0.23 kW=1 PF=0.95 Daily=Shape_93
New Load.LOAD94 Phases=1 Bus1=3351.2 kV=0.23 kW=1 PF=0.95 Daily=Shape_94
New Load.LOAD95 Phases=1 Bus1=3371.2 kV=0.23 kW=1 PF=0.95 Daily=Shape_95
New Load.LOAD96 Phases=1 Bus1=3372.2 kV=0.23 kW=1 PF=0.95 Daily=Shape_96
New Load.LOAD97 Phases=1 Bus1=3373.2 kV=0.23 kW=1 PF=0.95 Daily=Shape_97
New Load.LOAD98 Phases=1 Bus1=3374.2 kV=0.23 kW=1 PF=0.95 Daily=Shape_98
New Load.LOAD99 Phases=1 Bus1=3375.2 kV=0.23 kW=1 PF=0.95 Daily=Shape_99
New Load.LOAD100 Phases=1 Bus1=3376.2 kV=0.23 kW=1 PF=0.95 Daily=Shape_100
New Load.LOAD101 Phases=1 Bus1=3377.2 kV=0.23 kW=1 PF=0.95 Daily=Shape_101
New Load.LOAD102 Phases=1 Bus1=3378.2 kV=0.23 kW=1 PF=0.95 Daily=Shape_102
New Load.LOAD103 Phases=1 Bus1=3379.2 kV=0.23 kW=1 PF=0.95 Daily=Shape_103
New Load.LOAD104 Phases=1 Bus1=3380.2 kV=0.23 kW=1 PF=0.95 Daily=Shape_104
New Load.LOAD105 Phases=1 Bus1=3381.2 kV=0.23 kW=1 PF=0.95 Daily=Shape_105
New Load.LOAD106 Phases=1 Bus1=3382.2 kV=0.23 kW=1 PF=0.95 Daily=Shape_106
New Load.LOAD107 Phases=1 Bus1=3383.2 kV=0.23 kW=1 PF=0.95 Daily=Shape_107
New Load.LOAD108 Phases=1 Bus1=3384.2 kV=0.23 kW=1 PF=0.95 Daily=Shape_108
New Load.LOAD109 Phases=1 Bus1=3385.2 kV=0.23 kW=1 PF=0.95 Daily=Shape_109
New Load.LOAD110 Phases=1 Bus1=3386.2 kV=0.23 kW=1 PF=0.95 Daily=Shape_110
New Load.LOAD111 Phases=1 Bus1=3387.2 kV=0.23 kW=1 PF=0.95 Daily=Shape_111
New Load.LOAD112 Phases=1 Bus1=3388.2 kV=0.23 kW=1 PF=0.95 Daily=Shape_112
New Load.LOAD113 Phases=1 Bus1=3389.2 kV=0.23 kW=1 PF=0.95 Daily=Shape_113
New Load.LOAD114 Phases=1 Bus1=3390.2 kV=0.23 kW=1 PF=0.95 Daily=Shape_114
New Load.LOAD115 Phases=1 Bus1=3391.2 kV=0.23 kW=1 PF=0.95 Daily=Shape_115
New Load.LOAD116 Phases=1 Bus1=3392.2 kV=0.23 kW=1 PF=0.95 Daily=Shape_116
New Load.LOAD117 Phases=1 Bus1=3393.2 kV=0.23 kW=1 PF=0.95 Daily=Shape_117
New Load.LOAD118 Phases=1 Bus1=3394.2 kV=0.23 kW=1 PF=0.95 Daily=Shape_118
New Load.LOAD119 Phases=1 Bus1=3395.2 kV=0.23 kW=1 PF=0.95 Daily=Shape_119
New Load.LOAD120 Phases=1 Bus1=3396.2 kV=0.23 kW=1 PF=0.95 Daily=Shape_120
New Load.LOAD121 Phases=1 Bus1=3397.2 kV=0.23 kW=1 PF=0.95 Daily=Shape_121
New Load.LOAD122 Phases=1 Bus1=3398.2 kV=0.23 kW=1 PF=0.95 Daily=Shape_122
New Load.LOAD123 Phases=1 Bus1=3399.2 kV=0.23 kW=1 PF=0.95 Daily=Shape_123
New Load.LOAD124 Phases=1 Bus1=3400.2 kV=0.23 kW=1 PF=0.95 Daily=Shape_124
New Load.LOAD125 Phases=1 Bus1=3401.2 kV=0.23 kW=1 PF=0.95 Daily=Shape_125
New Load.LOAD126 Phases=1 Bus1=3402.2 kV=0.23 kW=1 PF=0.95 Daily=Shape_126
New Load.LOAD127 Phases=1 Bus1=3403.2 kV=0.23 kW=1 PF=0.95 Daily=Shape_127
New Load.LOAD128 Phases=1 Bus1=3404.2 kV=0.23 kW=1 PF=0.95 Daily=Shape_128
New Load.LOAD129 Phases=1 Bus1=3405.2 kV=0.23 kW=1 PF=0.95 Daily=Shape_129
New Load.LOAD130 Phases=1 Bus1=3406.2 kV=0.23 kW=1 PF=0.95 Daily=Shape_130
New Load.LOAD131 Phases=1 Bus1=3407.2 kV=0.23 kW=1 PF=0.95 Daily=Shape_131
New Load.LOAD132 Phases=1 Bus1=3408.2 kV=0.23 kW=1 PF=0.95 Daily=Shape_132
New Load.LOAD133 Phases=1 Bus1=3409.2 kV=0.23 kW=1 PF=0.95 Daily=Shape_133
New Load.LOAD134 Phases=1 Bus1=3410.2 kV=0.23 kW=1 PF=0.95 Daily=Shape_134
New Load.LOAD135 Phases=1 Bus1=3431.3 kV=0.23 kW=1 PF=0.95 Daily=Shape_135
New Load.LOAD136 Phases=1 Bus1=3438.1 kV=0.23 kW=1 PF=0.95 Daily=Shape_136
New Load.LOAD137 Phases=1 Bus1=3490.2 kV=0.23 kW=1 PF=0.95 Daily=Shape_137
New Load.LOAD138 Phases=1 Bus1=3506.3 kV=0.23 kW=1 PF=0.95 Daily=Shape_138
New Load.LOAD139 Phases=1 Bus1=3508.1 kV=0.23 kW=1 PF=0.95 Daily=Shape_139
New Load.LOAD140 Phases=1 Bus1=3522.3 kV=0.23 kW=1 PF=0.95 Daily=Shape_140
New Load.LOAD141 Phases=1 Bus1=3528.2 kV=0.23 kW=1 PF=0.95 Daily=Shape_141
New Load.LOAD142 Phases=1 Bus1=3555.1 kV=0.23 kW=1 PF=0.95 Daily=Shape_142
New Load.LOAD143 Phases=1 Bus1=3557.2 kV=0.23 kW=1 PF=0.95 Daily=Shape_143
New Load.LOAD144 Phases=1 Bus1=3570.2 kV=0.23 kW=1 PF=0.95 Daily=Shape_144
New Load.LOAD145 Phases=1 Bus1=3580.3 kV=0.23 kW=1 PF=0.95 Daily=Shape_145
New Load.LOAD146 Phases=1 Bus1=3623.3 kV=0.23 kW=1 PF=0.95 Daily=Shape_146
New Load.LOAD147 Phases=1 Bus1=3627.3 kV=0.23 kW=1 PF=0.95 Daily=Shape_147
New Load.LOAD148 Phases=1 Bus1=3647.3 kV=0.23 kW=1 PF=0.95 Daily=Shape_148
New Load.LOAD149 Phases=1 Bus1=3680.2 kV=0.23 kW=1 PF=0.95 Daily=Shape_149
New Load.LOAD150 Phases=1 Bus1=3696.1 kV=0.23 kW=1 PF=0.95 Daily=Shape_150
New Load.LOAD151 Phases=1 Bus1=3699.1 kV=0.23 kW=1 PF=0.95 Daily=Shape_151
New Load.LOAD152 Phases=1 Bus1=3705.2 kV=0.23 kW=1 PF=0.95 Daily=Shape_152
New Load.LOAD153 Phases=1 Bus1=3706.2 kV=0.23 kW=1 PF=0.95 Daily=Shape_153
New Load.LOAD154 Phases=1 Bus1=3720.1 kV=0.23 kW=1 PF=0.95 Daily=Shape_154
New Load.LOAD155 Phases=1 Bus1=3732.3 kV=0.23 kW=1 PF=0.95 Daily=Shape_155
New Load.LOAD156 Phases=1 Bus1=3741.3 kV=0.23 kW=1 PF=0.95 Daily=Shape_156
New Load.LOAD157 Phases=1 Bus1=3765.2 kV=0.23 kW=1 PF=0.95 Daily=Shape_157
New Load.LOAD158 Phases=1 Bus1=3766.1 kV=0.23 kW=1 PF=0.95 Daily=Shape_158
New Load.LOAD159 Phases=1 Bus1=3771.2 kV=0.23 kW=1 PF=0.95 Daily=Shape_159
New Load.LOAD160 Phases=1 Bus1=3791.2 kV=0.23 kW=1 PF=0.95 Daily=Shape_160
New Load.LOAD161 Phases=1 Bus1=3792.3 kV=0.23 kW=1 PF=0.95 Daily=Shape_161
New Load.LOAD162 Phases=1 Bus1=3806.1 kV=0.23 kW=1 PF=0.95 Daily=Shape_162
New Load.LOAD163 Phases=1 Bus1=3807.2 kV=0.23 kW=1 PF=0.95 Daily=Shape_163
New Load.LOAD164 Phases=1 Bus1=3887.2 kV=0.23 kW=1 PF=0.95 Daily=Shape_164
New Load.LOAD165 Phases=1 Bus1=3902.2 kV=0.23 kW=1 PF=0.95 Daily=Shape_165
New Load.LOAD166 Phases=1 Bus1=3904.3 kV=0.23 kW=1 PF=0.95 Daily=Shape_166
New Load.LOAD167 Phases=1 Bus1=3905.1 kV=0.23 kW=1 PF=0.95 Daily=Shape_167
New Load.LOAD168 Phases=1 Bus1=3937.2 kV=0.23 kW=1 PF=0.95 Daily=Shape_168
New Load.LOAD169 Phases=1 Bus1=3956.1 kV=0.23 kW=1 PF=0.95 Daily=Shape_169
New Load.LOAD170 Phases=1 Bus1=4051.1 kV=0.23 kW=1 PF=0.95 Daily=Shape_170
New Load.LOAD171 Phases=1 Bus1=4060.2 kV=0.23 kW=1 PF=0.95 Daily=Shape_171
New Load.LOAD172 Phases=1 Bus1=4075.2 kV=0.23 kW=1 PF=0.95 Daily=Shape_172
New Load.LOAD173 Phases=1 Bus1=4085.3 kV=0.23 kW=1 PF=0.95 Daily=Shape_173
New Load.LOAD174 Phases=1 Bus1=4101.3 kV=0.23 kW=1 PF=0.95 Daily=Shape_174
New Load.LOAD175 Phases=1 Bus1=4108.2 kV=0.23 kW=1 PF=0.95 Daily=Shape_175
New Load.LOAD176 Phases=1 Bus1=4109.2 kV=0.23 kW=1 PF=0.95 Daily=Shape_176
New Load.LOAD177 Phases=1 Bus1=4123.1 kV=0.23 kW=1 PF=0.95 Daily=Shape_177
New Load.LOAD178 Phases=1 Bus1=4124.2 kV=0.23 kW=1 PF=0.95 Daily=Shape_178
New Load.LOAD179 Phases=1 Bus1=4166.2 kV=0.23 kW=1 PF=0.95 Daily=Shape_179
New Load.LOAD180 Phases=1 Bus1=4188.1 kV=0.23 kW=1 PF=0.95 Daily=Shape_180
New Load.LOAD181 Phases=1 Bus1=4202.3 kV=0.23 kW=1 PF=0.95 Daily=Shape_181
New Load.LOAD182 Phases=1 Bus1=4210.3 kV=0.23 kW=1 PF=0.95 Daily=Shape_182
New Load.LOAD183 Phases=1 Bus1=4232.2 kV=0.23 kW=1 PF=0.95 Daily=Shape_183
New Load.LOAD184 Phases=1 Bus1=4250.3 kV=0.23 kW=1 PF=0.95 Daily=Shape_184
New Load.LOAD185 Phases=1 Bus1=4251.2 kV=0.23 kW=1 PF=0.95 Daily=Shape_185
New Load.LOAD186 Phases=1 Bus1=4270.2 kV=0.23 kW=1 PF=0.95 Daily=Shape_186
New Load.LOAD187 Phases=1 Bus1=4299.2 kV=0.23 kW=1 PF=0.95 Daily=Shape_187
New Load.LOAD188 Phases=1 Bus1=4305.3 kV=0.23 kW=1 PF=0.95 Daily=Shape_188
New Load.LOAD189 Phases=1 Bus1=4308.2 kV=0.23 kW=1 PF=0.95 Daily=Shape_189
New Load.LOAD190 Phases=1 Bus1=4318.1 kV=0.23 kW=1 PF=0.95 Daily=Shape_190
New Load.LOAD191 Phases=1 Bus1=4337.3 kV=0.23 kW=1 PF=0.95 Daily=Shape_191
New Load.LOAD192 Phases=1 Bus1=4363.3 kV=0.23 kW=1 PF=0.95 Daily=Shape_192
New Load.LOAD193 Phases=1 Bus1=4396.2 kV=0.23 kW=1 PF=0.95 Daily=Shape_193
New Load.LOAD194 Phases=1 Bus1=4431.2 kV=0.23 kW=1 PF=0.95 Daily=Shape_194
New Load.LOAD195 Phases=1 Bus1=4439.1 kV=0.23 kW=1 PF=0.95 Daily=Shape_195
New Load.LOAD196 Phases=1 Bus1=4452.2 kV=0.23 kW=1 PF=0.95 Daily=Shape_196
New Load.LOAD197 Phases=1 Bus1=4480.2 kV=0.23 kW=1 PF=0.95 Daily=Shape_197
New Load.LOAD198 Phases=1 Bus1=4497.3 kV=0.23 kW=1 PF=0.95 Daily=Shape_198
New Load.LOAD199 Phases=1 Bus1=4562.3 kV=0.23 kW=1 PF=0.95 Daily=Shape_199
New Load.LOAD200 Phases=1 Bus1=4584.3 kV=0.23 kW=1 PF=0.95 Daily=Shape_200
New Load.LOAD201 Phases=1 Bus1=4585.1 kV=0.23 kW=1 PF=0.95 Daily=Shape_201
New Load.LOAD202 Phases=1 Bus1=4586.2 kV=0.23 kW=1 PF=0.95 Daily=Shape_202
New Load.LOAD203 Phases=1 Bus1=4587.3 kV=0.23 kW=1 PF=0.95 Daily=Shape_203
New Load.LOAD204 Phases=1 Bus1=4588.1 kV=0.23 kW=1 PF=0.95 Daily=Shape_204
New Load.LOAD205 Phases=1 Bus1=4589.2 kV=0.23 kW=1 PF=0.95 Daily=Shape_205
New Load.LOAD206 Phases=1 Bus1=4590.3 kV=0.23 kW=1 PF=0.95 Daily=Shape_206
New Load.LOAD207 Phases=1 Bus1=4591.1 kV=0.23 kW=1 PF=0.95 Daily=Shape_207
New Load.LOAD208 Phases=1 Bus1=4592.2 kV=0.23 kW=1 PF=0.95 Daily=Shape_208
New Load.LOAD209 Phases=1 Bus1=4593.3 kV=0.23 kW=1 PF=0.95 Daily=Shape_209
New Load.LOAD210 Phases=1 Bus1=4594.1 kV=0.23 kW=1 PF=0.95 Daily=Shape_210
New Load.LOAD211 Phases=1 Bus1=4595.2 kV=0.23 kW=1 PF=0.95 Daily=Shape_211
New Load.LOAD212 Phases=1 Bus1=4596.3 kV=0.23 kW=1 PF=0.95 Daily=Shape_212
New Load.LOAD213 Phases=1 Bus1=4597.1 kV=0.23 kW=1 PF=0.95 Daily=Shape_213
New Load.LOAD214 Phases=1 Bus1=4674.2 kV=0.23 kW=1 PF=0.95 Daily=Shape_214
New Load.LOAD215 Phases=1 Bus1=4696.3 kV=0.23 kW=1 PF=0.95 Daily=Shape_215
New Load.LOAD216 Phases=1 Bus1=4697.2 kV=0.23 kW=1 PF=0.95 Daily=Shape_216
New Load.LOAD217 Phases=1 Bus1=4715.1 kV=0.23 kW=1 PF=0.95 Daily=Shape_217
New Load.LOAD218 Phases=1 Bus1=4725.3 kV=0.23 kW=1 PF=0.95 Daily=Shape_218
New Load.LOAD219 Phases=1 Bus1=4840.2 kV=0.23 kW=1 PF=0.95 Daily=Shape_219
New Load.LOAD220 Phases=1 Bus1=4853.2 kV=0.23 kW=1 PF=0.95 Daily=Shape_220
New Load.LOAD221 Phases=1 Bus1=4854.2 kV=0.23 kW=1 PF=0.95 Daily=Shape_221
New Load.LOAD222 Phases=1 Bus1=4868.2 kV=0.23 kW=1 PF=0.95 Daily=Shape_222
New Load.LOAD223 Phases=1 Bus1=4876.1 kV=0.23 kW=1 PF=0.95 Daily=Shape_223
New Load.LOAD224 Phases=1 Bus1=4908.3 kV=0.23 kW=1 PF=0.95 Daily=Shape_224
New Load.LOAD225 Phases=1 Bus1=4909.3 kV=0.23 kW=1 PF=0.95 Daily=Shape_225
New Load.LOAD226 Phases=1 Bus1=4920.1 kV=0.23 kW=1 PF=0.95 Daily=Shape_226
New Load.LOAD227 Phases=1 Bus1=4924.1 kV=0.23 kW=1 PF=0.95 Daily=Shape_227
New Load.LOAD228 Phases=1 Bus1=4938.1 kV=0.23 kW=1 PF=0.95 Daily=Shape_228
New Load.LOAD229 Phases=1 Bus1=4946.2 kV=0.23 kW=1 PF=0.95 Daily=Shape_229
New Load.LOAD230 Phases=1 Bus1=4972.1 kV=0.23 kW=1 PF=0.95 Daily=Shape_230
New Load.LOAD231 Phases=1 Bus1=4976.1 kV=0.23 kW=1 PF=0.95 Daily=Shape_231
New Load.LOAD232 Phases=1 Bus1=5002.2 kV=0.23 kW=1 PF=0.95 Daily=Shape_232
New Load.LOAD233 Phases=1 Bus1=5038.3 kV=0.23 kW=1 PF=0.95 Daily=Shape_233
New Load.LOAD234 Phases=1 Bus1=5057.2 kV=0.23 kW=1 PF=0.95 Daily=Shape_234
New Load.LOAD235 Phases=1 Bus1=5058.2 kV=0.23 kW=1 PF=0.95 Daily=Shape_235
New Load.LOAD236 Phases=1 Bus1=5070.2 kV=0.23 kW=1 PF=0.95 Daily=Shape_236
New Load.LOAD237 Phases=1 Bus1=5071.3 kV=0.23 kW=1 PF=0.95 Daily=Shape_237
New Load.LOAD238 Phases=1 Bus1=5086.2 kV=0.23 kW=1 PF=0.95 Daily=Shape_238
New Load.LOAD239 Phases=1 Bus1=5090.1 kV=0.23 kW=1 PF=0.95 Daily=Shape_239
New Load.LOAD240 Phases=1 Bus1=5091.1 kV=0.23 kW=1 PF=0.95 Daily=Shape_240
New Load.LOAD241 Phases=1 Bus1=5149.3 kV=0.23 kW=1 PF=0.95 Daily=Shape_241
New Load.LOAD242 Phases=1 Bus1=5190.3 kV=0.23 kW=1 PF=0.95 Daily=Shape_242
New Load.LOAD243 Phases=1 Bus1=5191.1 kV=0.23 kW=1 PF=0.95 Daily=Shape_243
New Load.LOAD244 Phases=1 Bus1=5232.3 kV=0.23 kW=1 PF=0.95 Daily=Shape_244
New Load.LOAD245 Phases=1 Bus1=5256.3 kV=0.23 kW=1 PF=0.95 Daily=Shape_245
New Load.LOAD246 Phases=1 Bus1=5257.3 kV=0.23 kW=1 PF=0.95 Daily=Shape_246
New Load.LOAD247 Phases=1 Bus1=5259.2 kV=0.23 kW=1 PF=0.95 Daily=Shape_247
New Load.LOAD248 Phases=1 Bus1=5263.2 kV=0.23 kW=1 PF=0.95 Daily=Shape_248
New Load.LOAD249 Phases=1 Bus1=5343.2 kV=0.23 kW=1 PF=0.95 Daily=Shape_249
New Load.LOAD250 Phases=1 Bus1=5374.3 kV=0.23 kW=1 PF=0.95 Daily=Shape_250
New Load.LOAD251 Phases=1 Bus1=5388.3 kV=0.23 kW=1 PF=0.95 Daily=Shape_251
New Load.LOAD252 Phases=1 Bus1=5400.1 kV=0.23 kW=1 PF=0.95 Daily=Shape_252
New Load.LOAD253 Phases=1 Bus1=5417.2 kV=0.23 kW=1 PF=0.95 Daily=Shape_253
New Load.LOAD254 Phases=1 Bus1=5433.3 kV=0.23 kW=1 PF=0.95 Daily=Shape_254
New Load.LOAD255 Phases=1 Bus1=5445.1 kV=0.23 kW=1 PF=0.95 Daily=Shape_255
New Load.LOAD256 Phases=1 Bus1=5489.3 kV=0.23 kW=1 PF=0.95 Daily=Shape_256
New Load.LOAD257 Phases=1 Bus1=5512.3 kV=0.23 kW=1 PF=0.95 Daily=Shape_257
New Load.LOAD258 Phases=1 Bus1=5531.3 kV=0.23 kW=1 PF=0.95 Daily=Shape_258
New Load.LOAD259 Phases=1 Bus1=5573.2 kV=0.23 kW=1 PF=0.95 Daily=Shape_259
New Load.LOAD260 Phases=1 Bus1=5575.3 kV=0.23 kW=1 PF=0.95 Daily=Shape_260
New Load.LOAD261 Phases=1 Bus1=5586.2 kV=0.23 kW=1 PF=0.95 Daily=Shape_261
New Load.LOAD262 Phases=1 Bus1=5596.2 kV=0.23 kW=1 PF=0.95 Daily=Shape_262
New Load.LOAD263 Phases=1 Bus1=5700.2 kV=0.23 kW=1 PF=0.95 Daily=Shape_263
New Load.LOAD264 Phases=1 Bus1=5752.1 kV=0.23 kW=1 PF=0.95 Daily=Shape_264
New Load.LOAD265 Phases=1 Bus1=5842.1 kV=0.23 kW=1 PF=0.95 Daily=Shape_265
New Load.LOAD266 Phases=1 Bus1=5861.2 kV=0.23 kW=1 PF=0.95 Daily=Shape_266
New Load.LOAD267 Phases=1 Bus1=5932.3 kV=0.23 kW=1 PF=0.95 Daily=Shape_267
New Load.LOAD268 Phases=1 Bus1=6069.3 kV=0.23 kW=1 PF=0.95 Daily=Shape_268
New Load.LOAD269 Phases=1 Bus1=6094.3 kV=0.23 kW=1 PF=0.95 Daily=Shape_269
New Load.LOAD270 Phases=1 Bus1=6119.1 kV=0.23 kW=1 PF=0.95 Daily=Shape_270
New Load.LOAD271 Phases=1 Bus1=6162.2 kV=0.23 kW=1 PF=0.95 Daily=Shape_271
New Load.LOAD272 Phases=1 Bus1=6237.3 kV=0.23 kW=1 PF=0.95 Daily=Shape_272
New Load.LOAD273 Phases=1 Bus1=6249.2 kV=0.23 kW=1 PF=0.95 Daily=Shape_273
New Load.LOAD274 Phases=1 Bus1=6334.3 kV=0.23 kW=1 PF=0.95 Daily=Shape_274
New Load.LOAD275 Phases=1 Bus1=6440.1 kV=0.23 kW=1 PF=0.95 Daily=Shape_275
New Load.LOAD276 Phases=1 Bus1=6450.3 kV=0.23 kW=1 PF=0.95 Daily=Shape_276
New Load.LOAD277 Phases=1 Bus1=6466.3 kV=0.23 kW=1 PF=0.95 Daily=Shape_277
New Load.LOAD278 Phases=1 Bus1=6477.1 kV=0.23 kW=1 PF=0.95 Daily=Shape_278
New Load.LOAD279 Phases=1 Bus1=6548.2 kV=0.23 kW=1 PF=0.95 Daily=Shape_279
New Load.LOAD280 Phases=1 Bus1=6623.2 kV=0.23 kW=1 PF=0.95 Daily=Shape_280
New Load.LOAD281 Phases=1 Bus1=6629.3 kV=0.23 kW=1 PF=0.95 Daily=Shape_281
New Load.LOAD282 Phases=1 Bus1=6638.2 kV=0.23 kW=1 PF=0.95 Daily=Shape_282
New Load.LOAD283 Phases=1 Bus1=6677.1 kV=0.23 kW=1 PF=0.95 Daily=Shape_283
New Load.LOAD284 Phases=1 Bus1=6700.1 kV=0.23 kW=1 PF=0.95 Daily=Shape_284
New Load.LOAD285 Phases=1 Bus1=6731.3 kV=0.23 kW=1 PF=0.95 Daily=Shape_285
New Load.LOAD286 Phases=1 Bus1=6767.1 kV=0.23 kW=1 PF=0.95 Daily=Shape_286
New Load.LOAD287 Phases=1 Bus1=6768.2 kV=0.23 kW=1 PF=0.95 Daily=Shape_287
New Load.LOAD288 Phases=1 Bus1=6769.3 kV=0.23 kW=1 PF=0.95 Daily=Shape_288
New Load.LOAD289 Phases=1 Bus1=6809.1 kV=0.23 kW=1 PF=0.95 Daily=Shape_289
New Load.LOAD290 Phases=1 Bus1=6811.2 kV=0.23 kW=1 PF=0.95 Daily=Shape_290
New Load.LOAD291 Phases=1 Bus1=6856.1 kV=0.23 kW=1 PF=0.95 Daily=Shape_291
New Load.LOAD292 Phases=1 Bus1=6877.3 kV=0.23 kW=1 PF=0.95 Daily=Shape_292
New Load.LOAD293 Phases=1 Bus1=6881.1 kV=0.23 kW=1 PF=0.95 Daily=Shape_293
New Load.LOAD294 Phases=1 Bus1=6894.1 kV=0.23 kW=1 PF=0.95 Daily=Shape_294
New Load.LOAD295 Phases=1 Bus1=6896.1 kV=0.23 kW=1 PF=0.95 Daily=Shape_295
New Load.LOAD296 Phases=1 Bus1=6936.1 kV=0.23 kW=1 PF=0.95 Daily=Shape_296
New Load.LOAD297 Phases=1 Bus1=6945.1 kV=0.23 kW=1 PF=0.95 Daily=Shape_297
New Load.LOAD298 Phases=1 Bus1=6948.2 kV=0.23 kW=1 PF=0.95 Daily=Shape_298
New Load.LOAD299 Phases=1 Bus1=6967.1 kV=0.23 kW=1 PF=0.95 Daily=Shape_299
New Load.LOAD300 Phases=1 Bus1=6980.2 kV=0.23 kW=1 PF=0.95 Daily=Shape_300
New Load.LOAD301 Phases=1 Bus1=6983.1 kV=0.23 kW=1 PF=0.95 Daily=Shape_301
New Load.LOAD302 Phases=1 Bus1=7022.2 kV=0.23 kW=1 PF=0.95 Daily=Shape_302
